/*--------------------------------*- C++ -*----------------------------------*\
| =========                 |                                                 |
| \\      /  F ield         | OpenFOAM: The Open Source CFD Toolbox           |
|  \\    /   O peration     | Version:  3.0.1                                 |
|   \\  /    A nd           | Web:      www.OpenFOAM.com                      |
|    \\/     M anipulation  |                                                 |
\*---------------------------------------------------------------------------*/
FoamFile
{
    version     2.0;
    format      ascii;
    class       dictionary;
    object      blockMeshDict;
}
// * * * * * * * * * * * * * * * * * * * * * * * * * * * * * * * * * * * * * //
convertToMeters 1;

sqrR    0.00837212;
oilR    0.0209303;
waterR  0.0222739;

msqrR    #calc "-$sqrR";
moilR    #calc "-$oilR";
mwaterR  #calc "-$waterR";

vertices
(
 ($msqrR $msqrR 0 ) //0
 ($sqrR $msqrR 0 ) //1
 ($sqrR $sqrR 0 ) //2
 ($msqrR $sqrR 0 ) //3
 ($msqrR $msqrR 4.5 ) //4
 ($sqrR $msqrR 4.5 ) //5
 ($sqrR $sqrR 4.5 ) //6
 ($msqrR $sqrR 4.5 ) //7
 ($oilR $oilR 0 ) //8
 ($moilR $oilR 0 ) //9
 ($oilR $oilR 4.5 ) //10
 ($moilR $oilR 4.5 ) //11
 ($moilR $moilR 0 ) //12
 ($moilR $moilR 4.5 ) //13
 ($oilR $moilR 0 ) //14
 ($oilR $moilR 4.5 ) //15
 ($waterR $waterR 0 ) //16
 ($mwaterR $waterR 0 ) //17
 ($waterR $waterR 4.5 ) //18
 ($mwaterR $waterR 4.5 ) //19
 ($mwaterR $mwaterR 0 ) //20
 ($mwaterR $mwaterR 4.5 ) //21
 ($waterR $mwaterR 0 ) //22
 ($waterR $mwaterR 4.5 ) //23
);


edges
(
 arc 0 1 (0 -0.0100465 0)
 arc 1 2 (0.0100465 -1.71294e-10 0)
 arc 2 3 (0 0.0100465 0)
 arc 3 0 (-0.0100465 -1.71294e-10 0)
 arc 4 5 (0 -0.0100465 4.5)
 arc 5 6 (0.0100465 -1.71294e-10 4.5)
 arc 6 7 (0 0.0100465 4.5)
 arc 7 4 (-0.0100465 -1.71294e-10 4.5)
 arc 8 9 (-4.11707e-10 0.0295999 0)
 arc 10 11 (-4.11707e-10 0.0295999 4.5)
 arc 9 12 (-0.0295999 9.40878e-10 0)
 arc 11 13 (-0.0295999 9.40878e-10 4.5)
 arc 12 14 (-3.17561e-09 -0.0295999 0)
 arc 13 15 (-3.17561e-09 -0.0295999 4.5)
 arc 14 8 (0.0295999 -1.88176e-09 0)
 arc 15 10 (0.0295999 -1.88176e-09 4.5)
 arc 16 17 (-4.38136e-10 0.0315 0)
 arc 18 19 (-4.38136e-10 0.0315 4.5)
 arc 17 20 (-0.0315 1.00128e-09 0)
 arc 19 21 (-0.0315 1.00128e-09 4.5)
 arc 20 22 (-3.37946e-09 -0.0315 0)
 arc 21 23 (-3.37946e-09 -0.0315 4.5)
 arc 22 16 (0.0315 -2.00255e-09 0)
 arc 23 18 (0.0315 -2.00255e-09 4.5)
);

blocks
(
 hex (0 1 2 3 4 5 6 7 ) (9 9 250 ) simpleGrading (1 1 3 )
 hex (2 8 9 3 6 10 11 7 ) (12 9 250 ) simpleGrading (1 1 3 )
 hex (3 9 12 0 7 11 13 4 ) (12 9 250 ) simpleGrading (1 1 3 )
 hex (0 12 14 1 4 13 15 5 ) (12 9 250 ) simpleGrading (1 1 3 )
 hex (1 14 8 2 5 15 10 6 ) (12 9 250 ) simpleGrading (1 1 3 )
 hex (8 16 17 9 10 18 19 11 ) (5 9 250 ) simpleGrading (1 1 3 )
 hex (9 17 20 12 11 19 21 13 ) (5 9 250 ) simpleGrading (1 1 3 )
 hex (12 20 22 14 13 21 23 15 ) (5 9 250 ) simpleGrading (1 1 3 )
 hex (14 22 16 8 15 23 18 10 ) (5 9 250 ) simpleGrading (1 1 3 )
);

boundary
(
    walls
    {
    type wall;
    faces
    (
     (16 17 19 18)
     (17 20 21 19)
     (20 22 23 21)
     (22 16 18 23)
    );
    }

    outlet
    {
    type patch;
    faces
    (
     (4 5 6 7)
     (6 10 11 7)
     (7 11 13 4)
     (4 13 15 5)
     (5 15 10 6)
     (10 18 19 11)
     (11 19 21 13)
     (13 21 23 15)
     (15 23 18 10)
    );
    }

    oilInlet
    {
     type patch;
     faces
     (
      (0 1 2 3)
      (2 8 9 3)
      (3 9 12 0)
      (0 12 14 1)
      (1 14 8 2)
     );
    }

    waterInlet
    {
     type patch;
     faces
      (
       (8 16 17 9)
       (9 17 20 12)
       (12 20 22 14)
       (14 22 16 8)
      );
    }
);

