/*--------------------------------*- C++ -*----------------------------------*\
| =========                 |                                                 |
| \\      /  F ield         | OpenFOAM: The Open Source CFD Toolbox           |
|  \\    /   O peration     | Version:  2.3.1                                 |
|   \\  /    A nd           | Web:      www.OpenFOAM.org                      |
|    \\/     M anipulation  |                                                 |
\*---------------------------------------------------------------------------*/
FoamFile
{
    version     2.0;
    format      ascii;
    class       dictionary;
    location    "constant";
    object      phaseProperties;
}
// * * * * * * * * * * * * * * * * * * * * * * * * * * * * * * * * * * * * * //

phases (air water);

air
{
    diameterModel   PBEDiameter;
    PBEDiameterCoeffs
    {
        method methodOfClasses;
        MOCCoeffs
        {
            numberOfClasses 3;
            d0 0.01;
            d1 0.02;
            d2 0.03;
        }
        coalescenceKernel noCoalescence;
        breakupKernel noBreakup;
        noCoalescenceCoeffs
        {}
        noBreakupCoeffs
        {}
    }
}


water
{
    diameterModel constant;
    constantCoeffs
    {
        d               1e-4;
    }
}

blending
{
    default
    {
        type            linear;
        residualAlpha 1;
        maxFullyDispersedAlpha.air 0.3;
        maxPartlyDispersedAlpha.air 0.5;
        maxFullyDispersedAlpha.water 0.3;
        maxPartlyDispersedAlpha.water 0.5;
    }
}

sigma
(
    (air and water)     0.07
);

aspectRatio
(
    (air in water)
    {
        type            constant;
        E0              1.0;
    }

    (water in air)
    {
        type            constant;
        E0              1.0;
    }
);

drag
(
    (air in water)
    {
        type            SchillerNaumann;
        residualAlpha   1e-6;
        residualRe      1e-3;
        swarmCorrection
        {
            type        none;
        }
    }

    (water in air)
    {
        type            SchillerNaumann;
        residualAlpha   1e-6;
        residualRe      1e-3;
        swarmCorrection
        {
            type        none;
        }
    }

    (air and water)
    {
        type            segregated;
        residualAlpha   1e-6;
        m               0.5;
        n               8;
        swarmCorrection
        {
            type        none;
        }
    }
);

virtualMass
(
    (air in water)
    {
        type            constantCoefficient;
        Cvm             0.5;
    }

    (water in air)
    {
        type            constantCoefficient;
        Cvm             0.5;
    }
);

heatTransfer
(
    (air in water)
    {
        type            RanzMarshall;
        residualAlpha   1e-4;
    }

    (water in air)
    {
        type            RanzMarshall;
        residualAlpha   1e-4;
    }
);

lift
(
);

wallLubrication
(
);

turbulentDispersion
(
);

// Minimum allowable pressure
pMin            10000;


// ************************************************************************* //
