/*--------------------------------*- C++ -*----------------------------------*\
| =========                 |                                                 |
| \\      /  F ield         | OpenFOAM: The Open Source CFD Toolbox           |
|  \\    /   O peration     | Version:  3.0.1                                 |
|   \\  /    A nd           | Web:      www.OpenFOAM.org                      |
|    \\/     M anipulation  |                                                 |
\*---------------------------------------------------------------------------*/
FoamFile
{
    version     2.0;
    format      ascii;
    class       volScalarField;
    location    "0";
    object      n0;
}
// * * * * * * * * * * * * * * * * * * * * * * * * * * * * * * * * * * * * * //

dimensions      [0 0 0 0 0 0 0];

internalField   uniform 0.0021042e-08;

boundaryField
{
    outlet
    {
        type               inletOutlet;
        inletValue         $internalField;
        value              $internalField;

    }
    walls
    {
        type            zeroGradient;
    }
    oilInlet
    {
        type            fixedValue;
        value           $internalField;
    }
    waterInlet
    {
        type            fixedValue;
        value           $internalField;
    }

}


// ************************************************************************* //
