/*--------------------------------*- C++ -*----------------------------------*\
| =========                 |                                                 |
| \\      /  F ield         | OpenFOAM: The Open Source CFD Toolbox           |
|  \\    /   O peration     | Version:  2.1.x                                 |
|   \\  /    A nd           | Web:      www.OpenFOAM.org                      |
|    \\/     M anipulation  |                                                 |
\*---------------------------------------------------------------------------*/
FoamFile
{
    version     2.0;
    format      ascii;
    class       dictionary;
    location    "constant";
    object      transportProperties;
}
// * * * * * * * * * * * * * * * * * * * * * * * * * * * * * * * * * * * * * //

phases
(
    cont
    {
        rho             683.7;
        nu              0.658e-06;
        //rho             1166;
        //nu              1.372e-06;
        kappa           0;
        Cp              0;
	   Ct		1;

        diameterModel constant;
        constantCoeffs
        {
            d               1e-04;
        }
    }
    
    disp
    {
        rho             1166;
        nu              1.372e-06;
        //rho             683.7;
        //nu              0.658e-06;
        kappa           0;
        Cp              0;
        Ct		1;

        diameterModel   constant;
        constantCoeffs
        {
            d               1e-04;//0.5mm
        }
    }

);


sigmas
(
    (disp cont)     0.00
);

interfaceCompression
(
    (disp cont)     0.0
);

virtualMass
(
    (disp cont)     0.5
);

drag
(
    (disp cont)
    {
        type SchillerNaumann;
        residualPhaseFraction 1e-3;
        residualSlip 1e-3;
    }
);


// This is a dummy to support the Smagorinsky model
transportModel  Newtonian;
nu              nu [ 0 2 -1 0 0 0 0 ] 0;


// ************************************************************************* //
