/*--------------------------------*- C++ -*----------------------------------*\
| =========                 |                                                 |
| \\      /  F ield         | OpenFOAM: The Open Source CFD Toolbox           |
|  \\    /   O peration     | Version:  2.2.0                                 |
|   \\  /    A nd           | Web:      www.OpenFOAM.org                      |
|    \\/     M anipulation  |                                                 |
\*---------------------------------------------------------------------------*/
FoamFile
{
    version     2.0;
    format      ascii;
    class       volScalarField;
    location    "0";
    object      k;
}
// * * * * * * * * * * * * * * * * * * * * * * * * * * * * * * * * * * * * * //

dimensions      [0 2 -2 0 0 0 0];

internalField   uniform 6.6e-05; 

boundaryField
{
    outlet
    {
        type            inletOutlet;
        inletValue           uniform 6.6e-05;
    }
    inlet
    {
        type            fixedValue;
        value           uniform 6.6e-05;
    }
    walls
    {
        type            fixedValue;//kqRWallFunction;
	value		uniform 1e-10;
    }
    frontAndBack
    {
        type            empty;
    }
}


// ************************************************************************* //
