/*--------------------------------*- C++ -*----------------------------------*\
| =========                 |                                                 |
| \\      /  F ield         | OpenFOAM: The Open Source CFD Toolbox           |
|  \\    /   O peration     | Version:  2.2.0                                 |
|   \\  /    A nd           | Web:      www.OpenFOAM.org                      |
|    \\/     M anipulation  |                                                 |
\*---------------------------------------------------------------------------*/
FoamFile
{
    version     2.0;
    format      ascii;
    class       dictionary;
    location    "system";
    object      fvSolution;
}
// * * * * * * * * * * * * * * * * * * * * * * * * * * * * * * * * * * * * * //

solvers
{
    p
    {
        solver          GAMG;
        smoother        DIC;
        nPreSweeps      0;
        nPostSweeps     2;
        nFinestSweeps   2;
        cacheAgglomeration true;
        nCellsInCoarsestLevel 10;
        agglomerator    faceAreaPair;
        mergeLevels     1;
        tolerance       1e-8;
        relTol          0.01;
    }

    pFinal
    {
        $p;
        tolerance       1e-9;
        relTol          0;
    }

    pcorr
    {
        $p;
        tolerance       1e-5;
        relTol          0;
    }

    "U.*"
    {
        solver          PBiCG;
        preconditioner  DILU;
        tolerance       1e-05;
        relTol          0;
    }

    "T.*"
    {
        solver          PBiCG;
        preconditioner  DILU;
        tolerance       1e-8;
        relTol          0;
    }

    "Theta.*"
    {
        solver          PBiCG;
        preconditioner  DILU;
        tolerance       1e-05;
        relTol          0;
    }

    "k.*"
    {
        solver          PBiCG;
        preconditioner  DILU;
        tolerance       1e-05;
        relTol          0;
    }
    
    "m0.*"
    {
        solver          PBiCG;
        preconditioner  DILU;
        tolerance       1e-08;
        relTol          0;
    }


    "m1.*"
    {
        solver          PBiCG;
        preconditioner  DILU;
        tolerance       1e-10;//1e-10;
        relTol          0;
    }

    "m2.*"
    {
        solver          PBiCG;
        preconditioner  DILU;
        tolerance       1e-13;
        relTol          0;//1e-10;
    }

    "m3.*"
    {
        solver          PBiCG;
        preconditioner  DILU;
        tolerance       1e-13;
        relTol          0;//1e-10;
    }

    "alphaoil.*"
    {
        solver          PBiCG;
        preconditioner  DILU;
        tolerance       1e-13;
        relTol          0;//1e-10;
    }

    "alphawater.*"
    {
        solver          PBiCG;
        preconditioner  DILU;
        tolerance       1e-13;
        relTol          0;//1e-10;
    }

    "epsilon.*"
    {
        solver          PBiCG;
        preconditioner  DILU;
        tolerance       1e-05;
        relTol          0;
    }
}

PIMPLE
{
    nOuterCorrectors 1;
    nCorrectors     2;
    nNonOrthogonalCorrectors 0;
    nAlphaSubCycles 2;
    pRefCell        0;
    pRefValue       0;
}

relaxationFactors
{
    "U.*"           1;
    "T.*"           1;
    "alpha.*"       1;
    "Theta.*"       1;
    "k.*"           1;
    "epsilon.*"     1;
}


// ************************************************************************* //
