/*--------------------------------*- C++ -*----------------------------------*
| =========                 |                                                 |
| \      /  F ield         | OpenFOAM: The Open Source CFD Toolbox           |
|  \    /   O peration     | Version:  2.0.0                                 |
|   \  /    A nd           | Web:      www.OpenFOAM.com                      |
|    \/     M anipulation  |                                                 |
*---------------------------------------------------------------------------*/
FoamFile
{
    version     2.0;
    format      ascii;
    class       dictionary;
    object      blockMeshDict;
}
// * * * * * * * * * * * * * * * * * * * * * * * * * * * * * * * * * * * * * //

Convert to centimeters
convertToMeters 1;

vertices        
(
	(0 0 0)  				//0
	(0.025 0 0 )  				//1
	(0.025 0.183 0)  			//2
	(0 0.183 0)  				//3
	(0 0 1)  				//4
	(0.025 0 1 )  				//5
	(0.025 0.183 1)  			//6
	(0 0.183 1)  				//7
);

edges           
(
);

blocks          
(
    hex (0 1 2 3 4 5 6 7) (25 183 1) simpleGrading (1 1 1)
);

boundary          
(
	walls
	{
		type wall;
		faces
		(
		 (1 5 6 2)
		 (3 2 6 7)
		 (0 4 5 1)
		 (0 3 7 4)
		);
	}
	frontAndBack
	{
		type empty;
		faces
		(
		 (0 1 2 3)
		 (7 4 5 6)
		);
	}
);

mergePatchPairs
(
);

// ************************************************************************* //

