// -*- C++ -*-
// File generated by PyFoam - sorry for the ugliness

FoamFile
{
 version 2.0;
 format ascii;
 class dictionary;
 location "constant";
 object phaseProperties;
}

phases
  (
    air
    water
  );

air
{
  diameterModel PBEDiameter;
  PBEDiameterCoeffs
  {
    method methodOfClasses;
    MOCCoeffs
    {
      numberOfClasses 10;
      xi1 1.0;
    }
    coalescenceKernel constantCoalescence;
    breakupKernel noBreakup;
    daughterParticleDistribution uniformBinaryBreakup;
    constantCoalescenceCoeffs
    {
        constant 0.1;
    }
    noBreakupCoeffs
    {
    }
    binaryBreakupCoeffs
    {
    }
    uniformBinaryBreakupCoeffs
    {
    }
  }
}

water
{
  diameterModel constant;
  constantCoeffs
  {
    d 0.0001;
  }
}

blending
{
  default
  {
    type none;
    continuousPhase water;
  }
}

sigma
  (

    (
      air
      and
      water
    )
    0.07
  );

aspectRatio
  (

    (
      air
      in
      water
    )

    {
      type constant;
      E0 1.0;

    }
  );

drag
  (

    (
      air
      in
      water
    )

    {
      type SchillerNaumann;
      residualAlpha 1e-06;
      residualRe 0.001;
      swarmCorrection
      {
        type none;
      }

    }
  );

virtualMass
  (

    (
      air
      in
      water
    )

    {
      type constantCoefficient;
      Cvm 0.5;

    }
  );

heatTransfer
  (

    (
      air
      in
      water
    )

    {
      type RanzMarshall;
      residualAlpha 0.0001;

    }
  );

lift
  (
  );

wallLubrication
  (
  );

turbulentDispersion
  (
  ); 	// Minimum allowable pressure

pMin 10000; 	// ************************************************************************* //

