// -*- C++ -*-
// File generated by PyFoam - sorry for the ugliness

FoamFile
{
 version 2.0;
 format ascii;
 class volScalarField;
 location "0";
 object m2;
}

dimensions [ 0 6 0 0 0 0 0 ];

internalField uniform 1;

boundaryField
{
  walls
  {
    type zeroGradient;
  }
} 	// ************************************************************************* //

