/*--------------------------------*- C++ -*----------------------------------*
| =========                 |                                                 |
| \      /  F ield         | OpenFOAM: The Open Source CFD Toolbox           |
|  \    /   O peration     | Version:  2.0.0                                 |
|   \  /    A nd           | Web:      www.OpenFOAM.com                      |
|    \/     M anipulation  |                                                 |
*---------------------------------------------------------------------------*/
FoamFile
{
    version     2.0;
    format      ascii;
    class       dictionary;
    object      blockMeshDict;
}
// * * * * * * * * * * * * * * * * * * * * * * * * * * * * * * * * * * * * * //
convertToMeters 0.01;

vertices
(
	(-0.265165 -0.265165 -40 )
	(0.265165 -0.265165 -40 )
	(0.265165 0.265165 -40 )
	(-0.265165 0.265165 -40 )
	(-0.265165 -0.265165 0 )
	(0.265165 -0.265165 0 )
	(0.265165 0.265165 0 )
	(-0.265165 0.265165 0 )
	(0.53033 0.53033 -40 )
	(-0.53033 0.53033 -40 )
	(0.53033 0.53033 0 )
	(-0.53033 0.53033 0 )
	(-0.53033 -0.53033 -40 )
	(-0.53033 -0.53033 0 )
	(0.53033 -0.53033 -40 )
	(0.53033 -0.53033 0 )
	(1.06066 1.06066 -40 )
	(-1.06066 1.06066 -40 )
	(1.06066 1.06066 0 )
	(-1.06066 1.06066 0 )
	(-1.06066 -1.06066 -40 )
	(-1.06066 -1.06066 0 )
	(1.06066 -1.06066 -40 )
	(1.06066 -1.06066 0 )
	(-0.265165 -0.265165 0.5 )
	(0.265165 -0.265165 0.5 )
	(0.265165 0.265165 0.5 )
	(-0.265165 0.265165 0.5 )
	(0.53033 0.53033 0.5 )
	(-0.53033 0.53033 0.5 )
	(-0.53033 -0.53033 0.5 )
	(0.53033 -0.53033 0.5 )
	(-0.265165 -0.265165 60 )
	(0.265165 -0.265165 60 )
	(0.265165 0.265165 60 )
	(-0.265165 0.265165 60 )
	(0.53033 0.53033 60 )
	(-0.53033 0.53033 60 )
	(-0.53033 -0.53033 60 )
	(0.53033 -0.53033 60 )
	(1.06066 1.06066 0.5 )
	(-1.06066 1.06066 0.5 )
	(1.06066 1.06066 60 )
	(-1.06066 1.06066 60 )
	(-1.06066 -1.06066 0.5 )
	(-1.06066 -1.06066 60 )
	(1.06066 -1.06066 0.5 )
	(1.06066 -1.06066 60 )
);


edges
(
		arc 0 1 (0 -0.318198 -40)
		arc 1 2 (0.318198 -1.19887e-08 -40)
		arc 2 3 (0 0.318198 -40)
		arc 3 0 (-0.318198 -1.19887e-08 -40)
		arc 4 5 (0 -0.318198 0)
		arc 5 6 (0.318198 -1.19887e-08 0)
		arc 6 7 (0 0.318198 0)
		arc 7 4 (-0.318198 -1.19887e-08 0)
		arc 8 9 (-1.04318e-08 0.75 -40)
		arc 10 11 (-1.04318e-08 0.75 0)
		arc 9 12 (-0.75 2.38399e-08 -40)
		arc 11 13 (-0.75 2.38399e-08 0)
		arc 12 14 (-8.04633e-08 -0.75 -40)
		arc 13 15 (-8.04633e-08 -0.75 0)
		arc 14 8 (0.75 -4.76798e-08 -40)
		arc 15 10 (0.75 -4.76798e-08 0)
		arc 16 17 (-2.08636e-08 1.5 -40)
		arc 18 19 (-2.08636e-08 1.5 0)
		arc 17 20 (-1.5 4.76798e-08 -40)
		arc 19 21 (-1.5 4.76798e-08 0)
		arc 20 22 (-1.60927e-07 -1.5 -40)
		arc 21 23 (-1.60927e-07 -1.5 0)
		arc 22 16 (1.5 -9.53595e-08 -40)
		arc 23 18 (1.5 -9.53595e-08 0)
		arc 24 25 (0 -0.318198 0.5)
		arc 25 26 (0.318198 -1.19887e-08 0.5)
		arc 26 27 (0 0.318198 0.5)
		arc 27 24 (-0.318198 -1.19887e-08 0.5)
		arc 28 29 (-1.04318e-08 0.75 0.5)
		arc 29 30 (-0.75 2.38399e-08 0.5)
		arc 30 31 (-8.04633e-08 -0.75 0.5)
		arc 31 28 (0.75 -4.76798e-08 0.5)
		arc 32 33 (0 -0.318198 60)
		arc 33 34 (0.318198 -1.19887e-08 60)
		arc 34 35 (0 0.318198 60)
		arc 35 32 (-0.318198 -1.19887e-08 60)
		arc 36 37 (-1.04318e-08 0.75 60)
		arc 37 38 (-0.75 2.38399e-08 60)
		arc 38 39 (-8.04633e-08 -0.75 60)
		arc 39 36 (0.75 -4.76798e-08 60)
		arc 40 41 (-2.08636e-08 1.5 0.5)
		arc 42 43 (-2.08636e-08 1.5 60)
		arc 41 44 (-1.5 4.76798e-08 0.5)
		arc 43 45 (-1.5 4.76798e-08 60)
		arc 44 46 (-1.60927e-07 -1.5 0.5)
		arc 45 47 (-1.60927e-07 -1.5 60)
		arc 46 40 (1.5 -9.53595e-08 0.5)
		arc 47 42 (1.5 -9.53595e-08 60)
);

blocks
(
		hex (0 1 2 3 4 5 6 7 ) (12 12 80 ) simpleGrading (1 1 0.1 )
		hex (2 8 9 3 6 10 11 7 ) (8 12 80 ) simpleGrading (1 1 0.1 )
		hex (3 9 12 0 7 11 13 4 ) (8 12 80 ) simpleGrading (1 1 0.1 )
		hex (0 12 14 1 4 13 15 5 ) (8 12 80 ) simpleGrading (1 1 0.1 )
		hex (1 14 8 2 5 15 10 6 ) (8 12 80 ) simpleGrading (1 1 0.1 )
		hex (8 16 17 9 10 18 19 11 ) (17 12 80 ) simpleGrading (1 1 0.1 )
		hex (9 17 20 12 11 19 21 13 ) (17 12 80 ) simpleGrading (1 1 0.1 )
		hex (12 20 22 14 13 21 23 15 ) (17 12 80 ) simpleGrading (1 1 0.1 )
		hex (14 22 16 8 15 23 18 10 ) (17 12 80 ) simpleGrading (1 1 0.1 )
		hex (4 5 6 7 24 25 26 27 ) (12 12 10 ) simpleGrading (1 1 1 )
		hex (6 10 11 7 26 28 29 27 ) (8 12 10 ) simpleGrading (1 1 1 )
		hex (7 11 13 4 27 29 30 24 ) (8 12 10 ) simpleGrading (1 1 1 )
		hex (4 13 15 5 24 30 31 25 ) (8 12 10 ) simpleGrading (1 1 1 )
		hex (5 15 10 6 25 31 28 26 ) (8 12 10 ) simpleGrading (1 1 1 )
		hex (24 25 26 27 32 33 34 35 ) (12 12 220 ) simpleGrading (1 1 10 )
		hex (26 28 29 27 34 36 37 35 ) (8 12 220 ) simpleGrading (1 1 10 )
		hex (27 29 30 24 35 37 38 32 ) (8 12 220 ) simpleGrading (1 1 10 )
		hex (24 30 31 25 32 38 39 33 ) (8 12 220 ) simpleGrading (1 1 10 )
		hex (25 31 28 26 33 39 36 34 ) (8 12 220 ) simpleGrading (1 1 10 )
		hex (28 40 41 29 36 42 43 37 ) (17 12 220 ) simpleGrading (1 1 10 )
		hex (29 41 44 30 37 43 45 38 ) (17 12 220 ) simpleGrading (1 1 10 )
		hex (30 44 46 31 38 45 47 39 ) (17 12 220 ) simpleGrading (1 1 10 )
		hex (31 46 40 28 39 47 42 36 ) (17 12 220 ) simpleGrading (1 1 10 )
);

patches
(
	patch inlet
	(
		(0 1 2 3)
		(2 8 9 3)
		(3 9 12 0)
		(0 12 14 1)
		(1 14 8 2)
		(8 16 17 9)
		(9 17 20 12)
		(12 20 22 14)
		(14 22 16 8)
	)

	patch outlet
	(
		(32 33 34 35)
		(34 36 37 35)
		(35 37 38 32)
		(32 38 39 33)
		(33 39 36 34)
		(36 42 43 37)
		(37 43 45 38)
		(38 45 47 39)
		(39 47 42 36)
	)

	wall walls
	(
		(16 17 19 18)
		(17 20 21 19)
		(20 22 23 21)
		(22 16 18 23)
		(40 41 43 42)
		(41 44 45 43)
		(44 46 47 45)
		(46 40 42 47)
		(10 18 19 11)
		(11 19 21 13)
		(13 21 23 15)
		(15 23 18 10)
		(28 40 41 29)
		(29 41 44 30)
		(30 44 46 31)
		(31 46 40 28)
		(10 11 29 28)
		(11 13 30 29)
		(13 15 31 30)
		(15 10 28 31)
	)

);

